Circuit: * C:\Users\conno\OneDrive\Desktop\git\folding_amplifier\sim\ideal_single\folding_amplifier_ideal_single.asc

Model "ald1101": Oxide thickness thinner than recommended for a level 2 MOSFET.
Instance "m2": Length shorter than recommended for a level 2 MOSFET.
Instance "m1": Length shorter than recommended for a level 2 MOSFET.
Direct Newton iteration for .op point succeeded.

Date: Wed Nov 28 02:04:08 2018
Total elapsed time: 0.193 seconds.

tnom = 27
temp = 27
method = modified trap
totiter = 2102
traniter = 2093
tranpoints = 1047
accept = 1045
rejected = 2
matrix size = 14
fillins = 0
solver = Normal
Matrix Compiler1: 994 bytes object code size  0.5/0.4/[0.2]
Matrix Compiler2: 1.20 KB object code size  0.3/0.4/[0.2]

