Circuit: * C:\Users\conno\OneDrive\Desktop\git\folding_amplifier\sim\ideal_without_opamp\folding_amplifier_ideal_without_opamp.asc

Model "ald1101": Oxide thickness thinner than recommended for a level 2 MOSFET.
Instance "m15": Length shorter than recommended for a level 2 MOSFET.
Instance "m14": Length shorter than recommended for a level 2 MOSFET.
Instance "m12": Length shorter than recommended for a level 2 MOSFET.
Instance "m11": Length shorter than recommended for a level 2 MOSFET.
Instance "m9": Length shorter than recommended for a level 2 MOSFET.
Instance "m8": Length shorter than recommended for a level 2 MOSFET.
Instance "m6": Length shorter than recommended for a level 2 MOSFET.
Instance "m5": Length shorter than recommended for a level 2 MOSFET.
Instance "m2": Length shorter than recommended for a level 2 MOSFET.
Instance "m1": Length shorter than recommended for a level 2 MOSFET.
Direct Newton iteration for .op point succeeded.

Date: Wed Nov 28 02:23:46 2018
Total elapsed time: 0.459 seconds.

tnom = 27
temp = 27
method = modified trap
totiter = 2144
traniter = 2098
tranpoints = 1050
accept = 1046
rejected = 4
matrix size = 34
fillins = 34
solver = Normal
Matrix Compiler1: 5.32 KB object code size  1.5/0.9/[0.5]
Matrix Compiler2: off  [0.6]/0.9/0.6

