Circuit: * C:\Users\conno\OneDrive\Desktop\git\folding_amplifier\sim\Draft1.asc

Direct Newton iteration for .op point succeeded.

Date: Mon Nov 26 18:51:11 2018
Total elapsed time: 0.066 seconds.

tnom = 27
temp = 27
method = trap
totiter = 11
traniter = 0
tranpoints = 0
accept = 0
rejected = 0
matrix size = 104
fillins = 137
solver = Normal
Matrix Compiler1:     659 opcodes
Matrix Compiler2: 11.25 KB object code size
