Circuit: * C:\Users\conno\OneDrive\Desktop\git\folding_amplifier\sim\actual\folding_amplifier_actual_TESTING.asc

Model "ald1101": Oxide thickness thinner than recommended for a level 2 MOSFET.
Instance "m16": Length shorter than recommended for a level 2 MOSFET.
Instance "m15": Length shorter than recommended for a level 2 MOSFET.
Instance "m14": Length shorter than recommended for a level 2 MOSFET.
Instance "m13": Length shorter than recommended for a level 2 MOSFET.
Instance "m12": Length shorter than recommended for a level 2 MOSFET.
Instance "m11": Length shorter than recommended for a level 2 MOSFET.
Instance "m8": Length shorter than recommended for a level 2 MOSFET.
Instance "m7": Length shorter than recommended for a level 2 MOSFET.
Instance "m6": Length shorter than recommended for a level 2 MOSFET.
Instance "m5": Length shorter than recommended for a level 2 MOSFET.
Instance "m4": Length shorter than recommended for a level 2 MOSFET.
Instance "m3": Length shorter than recommended for a level 2 MOSFET.
Instance "m2": Length shorter than recommended for a level 2 MOSFET.
Instance "m1": Length shorter than recommended for a level 2 MOSFET.
Instance "m10": Length shorter than recommended for a level 2 MOSFET.
Instance "m9": Length shorter than recommended for a level 2 MOSFET.
Direct Newton iteration failed to find .op point.  (Use ".option noopiter" to skip.)
Starting Gmin stepping
Increasing initial diagonal Gmin to 100
Gmin = 100
Gmin = 10.7374
Gmin = 1.15292
Gmin = 0.123794
Gmin = 0.0132923
Gmin = 0.00142725
Gmin = 0.00015325
vernier = 0.5
vernier = 0.25
vernier = 0.125
Gmin = 9.94589e-005
vernier = 0.0625
vernier = 0.03125
vernier = 0.015625
vernier = 0.0078125
Gmin = 9.88788e-005
vernier = 0.00390625
vernier = 0.00195313
vernier = 0.000976563
vernier = 0.000488281
Gmin = 0
Gmin stepping failed

Starting source stepping with srcstepmethod=0
Source Step = 3.0303%
Source Step = 33.3333%
Source Step = 51.5625%
vernier = 0.00390625
Source Step = 51.5418%
Source Step = 51.5714%
Source Step = 51.601%
Source Step = 51.6306%
Source Step = 51.6602%
vernier = 0.00146484
Source Step = 51.6927%
Source Step = 51.7371%
Source Step = 51.7815%
Source Step = 51.8259%
Source Step = 51.8703%
vernier = 0.00219727
Source Step = 51.9169%
Source Step = 51.9835%
Source Step = 52.05%
Source Step = 52.1166%
Source Step = 52.1832%
Source Step = 52.2498%
vernier = 0.0032959
Source Step = 52.3497%
Source Step = 52.4495%
Source Step = 52.5494%
Source Step = 52.6493%
Source Step = 52.7492%
vernier = 0.00494385
Source Step = 52.894%
Source Step = 53.0438%
Source Step = 53.1936%
Source Step = 53.3434%
Source Step = 53.4932%
vernier = 0.00741577
Source Step = 53.703%
Source Step = 53.9277%
Source Step = 54.1524%
Source Step = 54.3771%
Source Step = 54.6019%
vernier = 0.0111237
Source Step = 54.9052%
Source Step = 55.2423%
Source Step = 55.5794%
Source Step = 55.9165%
Source Step = 56.2536%
vernier = 0.0166855
Source Step = 56.6918%
Source Step = 57.1974%
Source Step = 57.703%
Source Step = 58.2086%
Source Step = 58.7142%
vernier = 0.0250282
Source Step = 59.3463%
Source Step = 60.1047%
Source Step = 60.8631%
Source Step = 61.6216%
Source Step = 62.38%
vernier = 0.0375423
Source Step = 63.2901%
Source Step = 64.4278%
Source Step = 65.5654%
Source Step = 66.7031%
Source Step = 67.8407%
vernier = 0.0563135
Source Step = 69.149%
Source Step = 70.8555%
Source Step = 72.5619%
Source Step = 74.2684%
Source Step = 75.9749%
vernier = 0.0844703
Source Step = 77.852%
Source Step = 80.4117%
Source Step = 82.9714%
Source Step = 85.5311%
Source Step = 88.0908%
vernier = 0.126705
Source Step = 90.7785%
Starting source stepping with srcstepmethod=1
Source Step = 3.0303%
vernier = 0.25
Source Step = 0.0828598%
Source Step = 0.201231%
Source Step = 0.319602%
Source Step = 0.437973%
Source Step = 0.556345%
vernier = 0.00585938
Source Step = 0.710227%
Source Step = 0.887784%
Source Step = 1.06534%
Source Step = 1.2429%
Source Step = 1.42045%
vernier = 0.00878906
Source Step = 1.6424%
Source Step = 1.90874%
Source Step = 2.17507%
Source Step = 2.44141%
Source Step = 2.70774%
vernier = 0.0131836
Source Step = 3.02734%
Source Step = 3.42685%
Source Step = 3.82635%
Source Step = 4.22585%
Source Step = 4.62536%
vernier = 0.0197754
Source Step = 5.08478%
Source Step = 5.68404%
Source Step = 6.28329%
Source Step = 6.88255%
Source Step = 7.4818%
vernier = 0.0296631
Source Step = 8.14098%
Source Step = 9.03986%
Source Step = 9.93874%
Source Step = 10.8376%
Source Step = 11.7365%
vernier = 0.0444946
Source Step = 12.6803%
Source Step = 14.0287%
Source Step = 15.377%
Source Step = 16.7253%
Source Step = 18.0736%
Source Step = 19.4219%
vernier = 0.0667419
Source Step = 21.4444%
Source Step = 23.4669%
Source Step = 25.4894%
Source Step = 27.5119%
Source Step = 29.5344%
vernier = 0.100113
Source Step = 32.467%
Source Step = 35.5007%
Source Step = 38.5344%
Source Step = 39.2075%
Source stepping failed

Pseudo Transient failed in finding the operating point at 3.21907 ms.
Trouble finding operating point....skipping operating point for Transient analysis.
Changing Tseed to 2.44141e-009
Changing Tseed to 2.44141e-011
Changing Tseed to 2.44141e-008
Changing Tseed to 2.44141e-012
Changing Tseed to 2.44141e-007
Changing Tseed to 2.44141e-013
Changing Tseed to 2.44141e-006
Changing Tseed to 2.44141e-014
Changing Tseed to 2.44141e-005
Changing Tseed to 2.44141e-015
Changing Tseed to 0.000244141
Changing Tseed to 2.44141e-016
Heightened Def Con from 1.17802e-012 to 3.43811e-011
Heightened Def Con from 1.72212e-009 to 5.84712e-009
Heightened Def Con from 0.00214836 to 0.00214836

Date: Thu Dec 06 12:52:19 2018
Total elapsed time: 80.210 seconds.

tnom = 27
temp = 27
method = modified trap
totiter = 1097178
traniter = 1020516
tranpoints = 381067
accept = 269140
rejected = 111941
matrix size = 209
fillins = 325
solver = Normal
Thread vector: 43.2/30.0[4] 15.2/5.1[4] 14.4/8.5[4] 2.1/4.2[1]  2592/500
Matrix Compiler1: 33.31 KB object code size  24.2/12.7/[5.6]
Matrix Compiler2: 23.86 KB object code size  13.7/13.1/[3.4]

