Circuit: * C:\Users\conno\OneDrive\Desktop\git\folding_amplifier\sim\actual\folding_amplifier_actual.asc

Model "ald1101": Oxide thickness thinner than recommended for a level 2 MOSFET.
Instance "m16": Length shorter than recommended for a level 2 MOSFET.
Instance "m15": Length shorter than recommended for a level 2 MOSFET.
Instance "m14": Length shorter than recommended for a level 2 MOSFET.
Instance "m13": Length shorter than recommended for a level 2 MOSFET.
Instance "m12": Length shorter than recommended for a level 2 MOSFET.
Instance "m11": Length shorter than recommended for a level 2 MOSFET.
Instance "m8": Length shorter than recommended for a level 2 MOSFET.
Instance "m7": Length shorter than recommended for a level 2 MOSFET.
Instance "m6": Length shorter than recommended for a level 2 MOSFET.
Instance "m5": Length shorter than recommended for a level 2 MOSFET.
Instance "m4": Length shorter than recommended for a level 2 MOSFET.
Instance "m3": Length shorter than recommended for a level 2 MOSFET.
Instance "m2": Length shorter than recommended for a level 2 MOSFET.
Instance "m1": Length shorter than recommended for a level 2 MOSFET.
Instance "m10": Length shorter than recommended for a level 2 MOSFET.
Instance "m9": Length shorter than recommended for a level 2 MOSFET.
Direct Newton iteration failed to find .op point.  (Use ".option noopiter" to skip.)
Starting Gmin stepping
Increasing initial diagonal Gmin to 100
Gmin = 100
Gmin = 10.7374
Gmin = 1.15292
Gmin = 0.123794
Gmin = 0.0132923
Gmin = 0.00142725
Gmin = 0.00015325
vernier = 0.5
vernier = 0.25
vernier = 0.125
Gmin = 0.000102473
vernier = 0.0625
vernier = 0.03125
vernier = 0.015625
vernier = 0.0078125
Gmin = 0.000104854
vernier = 0.00390625
vernier = 0.00195313
vernier = 0.000976563
Gmin = 0.000104879
vernier = 0.00130208
vernier = 0.00173611
Gmin = 0.000104493
vernier = 0.00231481
vernier = 0.00308642
Gmin = 0.00010388
vernier = 0.00411522
Gmin = 0.000102923
vernier = 0.00548696
vernier = 0.00731595
Gmin = 0.000101337
vernier = 0.00975459
vernier = 0.0130061
Gmin = 9.88586e-005
vernier = 0.0173415
Gmin = 9.50829e-005
vernier = 0.023122
vernier = 0.0308293
Gmin = 8.90729e-005
vernier = 0.0411057
vernier = 0.0548076
Gmin = 8.02814e-005
vernier = 0.0730768
Gmin = 6.82022e-005
vernier = 0.0974357
vernier = 0.129914
Gmin = 5.19471e-005
vernier = 0.173219
vernier = 0.230959
Gmin = 3.37734e-005
vernier = 0.307945
Gmin = 1.72901e-005
vernier = 0.410593
vernier = 0.547457
Gmin = 5.75894e-006
vernier = 0.729942
vernier = 0.973256
Gmin = 1.05436e-006
vernier = 1
Gmin = 1.15666e-007
Gmin = 1.24195e-008
Gmin = 1.33354e-009
Gmin = 1.43187e-010
Gmin = 1.53746e-011
Gmin = 1.65084e-012
Gmin = 1.77257e-013
Gmin = 0
Gmin stepping succeeded in finding the operating point.


Date: Thu Dec 06 10:58:22 2018
Total elapsed time: 64.464 seconds.

tnom = 27
temp = 27
method = modified trap
totiter = 1000370
traniter = 998388
tranpoints = 323076
accept = 234055
rejected = 89021
matrix size = 208
fillins = 298
solver = Normal
Thread vector: 27.2/16.3[4] 10.3/5.4[4] 6.8/3.7[4] 1.2/1.9[1]  2592/500
Matrix Compiler1: 31.72 KB object code size  10.5/5.1/[2.4]
Matrix Compiler2: 23.41 KB object code size  6.4/7.7/[2.2]

